<?xml version="1.0" encoding="UTF-8"?>
<configuration xmlns:xsi="http://www.w3.org/2001/XMLSchema-instance" xsi:noNamespaceSchemaLocation="http://sumo.dlr.de/xsd/netconvertConfiguration.xsd">

    <input>
        <node-files value="intersect.nod.xml"/>
        <edge-files value="intersect.edg.xml"/>
        <type-files value="intersect.typ.xml"/>
        <connection-files value="intersect.con.xml"/>
    </input>
    <output>
        <output-file value="intersect.net.xml"/>
    </output>
    <report>
        <verbose value="true"/>
    </report>
</configuration>
